Hello, my name is Isaac.New line.
New line.